AMY3_pose2_ligand_modify2
                    3D
 Schrodinger Suite 2023-1.
 63 71  0  0  1  0            999 V2000
   -8.6700    1.0380   -5.4350 C   0  0  0  0  0  0
   -7.9580    0.3290   -6.3930 C   0  0  0  0  0  0
   -6.6530   -0.0670   -6.1350 C   0  0  0  0  0  0
   -8.0810    1.3480   -4.2190 C   0  0  0  0  0  0
   -6.7770    0.9510   -3.9610 C   0  0  0  0  0  0
   -6.0630    0.2460   -4.9220 C   0  0  0  0  0  0
   -4.6240   -0.1970   -4.6310 C   0  0  0  0  0  0
   -3.5500    0.8420   -4.9490 C   0  0  0  0  0  0
   -2.1720    0.2290   -4.6690 C   0  0  0  0  0  0
   -1.3020   -0.0440   -5.7180 C   0  0  0  0  0  0
   -1.6910    0.2880   -7.1520 C   0  0  0  0  0  0
   -2.5480   -0.3730   -7.9070 N   0  0  0  0  0  0
   -2.6030    0.2500   -9.1250 N   0  0  0  0  0  0
   -1.7730    1.2800   -9.0930 C   0  0  0  0  0  0
   -1.5080    2.2640  -10.2370 C   0  0  0  0  0  0
   -1.2030    1.3090   -7.8800 O   0  0  0  0  0  0
   -0.0560   -0.6090   -5.4270 C   0  0  0  0  0  0
    0.9570   -0.9340   -6.5320 C   0  0  0  0  0  0
    2.3110   -0.4650   -6.6110 C   0  0  0  0  0  0
    2.9900   -1.0250   -7.8630 C   0  0  0  0  0  0
    2.0690   -1.8520   -8.5870 C   0  0  0  0  0  0
    2.3150   -2.6120   -9.8990 C   0  0  3  0  0  0
    3.2000   -2.1530  -10.9760 N   0  0  0  0  0  0
    4.0050   -0.9600  -10.9890 C   0  0  2  0  0  0
    3.2160    0.3200  -10.8800 C   0  0  0  0  0  0
    4.0170    1.3080  -11.7090 C   0  0  0  0  0  0
    4.6610    0.4500  -12.8050 C   0  0  0  0  0  0
    4.6570   -0.8680  -12.3810 C   0  0  0  0  0  0
    5.1800   -1.8770  -13.2060 C   0  0  0  0  0  0
    5.7150   -1.5430  -14.4450 C   0  0  0  0  0  0
    5.7290   -0.2170  -14.8740 C   0  0  0  0  0  0
    5.2040    0.7830  -14.0630 C   0  0  0  0  0  0
    5.2160    2.1180  -14.4940 O   0  0  0  0  0  0
    5.9450    2.3480  -15.6720 C   0  0  0  0  0  0
    0.6520   -1.8900   -7.8040 S   0  0  0  0  0  0
    0.2250   -0.8780   -4.0920 C   0  0  0  0  0  0
    1.5590   -1.5060   -3.6980 C   0  0  0  0  0  0
    2.6460   -0.6750   -3.2180 N   0  0  0  0  0  0
    1.6940   -2.6800   -3.7860 O   0  0  0  0  0  0
   -0.6990   -0.5900   -3.0980 C   0  0  0  0  0  0
   -0.3580   -0.8960   -1.6320 C   0  0  0  0  0  0
   -0.3450    0.3610   -0.7580 C   0  0  0  0  0  0
    0.5270    1.4530   -1.3800 C   0  0  0  0  0  0
    0.1550    0.0270    0.6430 C   0  0  0  0  0  0
   -1.8560   -0.0520   -3.4170 N   0  0  0  0  0  0
   -9.9540    1.4300   -5.6900 F   0  0  0  0  0  0
    1.9045   -4.0543   -9.8655 O   0  0  0  0  0  0
    2.5185   -4.8943  -10.9460 C   0  0  2  0  0  0
    1.4745   -5.4723  -11.8660 C   0  0  0  0  0  0
    1.9795   -6.8693  -12.1800 C   0  0  0  0  0  0
    2.9095   -7.2473  -11.0180 C   0  0  0  0  0  0
    3.2215   -6.1043  -10.3050 C   0  0  0  0  0  0
    4.0605   -6.1763   -9.1800 C   0  0  0  0  0  0
    4.5825   -7.4043   -8.7850 C   0  0  0  0  0  0
    4.2735   -8.5603   -9.5060 C   0  0  0  0  0  0
    3.4415   -8.4883  -10.6160 C   0  0  0  0  0  0
    3.1325   -9.6503  -11.3370 O   0  0  0  0  0  0
    6.4978  -11.6184  -12.9265 C   0  0  0  0  0  0
    6.5051  -10.2214  -12.7807 C   0  0  0  0  0  0
    5.3824   -9.5649  -12.2504 C   0  0  0  0  0  0
    4.2525  -10.3053  -11.8660 C   0  0  0  0  0  0
    4.2452  -11.7022  -12.0118 C   0  0  0  0  0  0
    5.3679  -12.3588  -12.5421 C   0  0  0  0  0  0
  1  2  2  0  0  0
  1  4  1  0  0  0
  1 46  1  0  0  0
  2  3  1  0  0  0
  3  6  2  0  0  0
  4  5  2  0  0  0
  5  6  1  0  0  0
  6  7  1  0  0  0
  7  8  1  0  0  0
  8  9  1  0  0  0
  9 10  2  0  0  0
  9 45  1  0  0  0
 10 11  1  0  0  0
 10 17  1  0  0  0
 11 12  2  0  0  0
 11 16  1  0  0  0
 12 13  1  0  0  0
 13 14  2  0  0  0
 14 15  1  0  0  0
 14 16  1  0  0  0
 17 18  1  0  0  0
 17 36  2  0  0  0
 18 19  2  0  0  0
 18 35  1  0  0  0
 19 20  1  0  0  0
 20 21  2  0  0  0
 21 22  1  0  0  0
 21 35  1  0  0  0
 22 23  1  0  0  0
 22 47  1  0  0  0
 23 24  1  0  0  0
 24 25  1  0  0  0
 24 28  1  0  0  0
 25 26  1  0  0  0
 26 27  1  0  0  0
 27 28  2  0  0  0
 27 32  1  0  0  0
 28 29  1  0  0  0
 29 30  2  0  0  0
 30 31  1  0  0  0
 31 32  2  0  0  0
 32 33  1  0  0  0
 33 34  1  0  0  0
 36 37  1  0  0  0
 36 40  1  0  0  0
 37 38  1  0  0  0
 37 39  2  0  0  0
 40 41  1  0  0  0
 40 45  2  0  0  0
 41 42  1  0  0  0
 42 43  1  0  0  0
 42 44  1  0  0  0
 47 48  1  0  0  0
 48 49  1  0  0  0
 48 52  1  0  0  0
 49 50  1  0  0  0
 50 51  1  0  0  0
 51 52  2  0  0  0
 51 56  1  0  0  0
 52 53  1  0  0  0
 53 54  2  0  0  0
 54 55  1  0  0  0
 55 56  2  0  0  0
 56 57  1  0  0  0
 57 61  1  0  0  0
 58 59  2  0  0  0
 58 63  1  0  0  0
 59 60  1  0  0  0
 60 61  2  0  0  0
 61 62  1  0  0  0
 62 63  2  0  0  0
M  END
> <i_m_stars>
0

> <s_m_entry_id>
89

> <s_m_entry_name>
Structure7

> <r_pdb_PDB_CRYST1_a>
274.176

> <r_pdb_PDB_CRYST1_b>
274.176

> <r_pdb_PDB_CRYST1_c>
274.176

> <r_pdb_PDB_CRYST1_alpha>
90

> <r_pdb_PDB_CRYST1_beta>
90

> <r_pdb_PDB_CRYST1_gamma>
90

> <s_pdb_PDB_CRYST1_Space_Group>
P 1

> <i_pdb_PDB_CRYST1_z>
1

> <s_pdb_PDB_format_version>
3.0

> <s_m_Source_Path>
C:\Users\user\Desktop\AMY3

> <s_m_Source_File>
AMY3-TM-08292025-pose2.pdb

> <i_m_Source_File_Index>
1

> <s_m_subgroup_title>
AMY3_pose2

> <s_m_subgroupid>
AMY3_pose2

> <b_m_subgroup_collapsed>
0

$$$$
